/*--------------------------------*- C++ -*----------------------------------*\
  =========                 |
  \\      /  F ield         | OpenFOAM: The Open Source CFD Toolbox
   \\    /   O peration     | Website:  https://openfoam.org
    \\  /    A nd           | Version:  7
     \\/     M anipulation  |
\*---------------------------------------------------------------------------*/
FoamFile
{
    version     2.0;
    format      ascii;
    class       featureEdgeMesh;
    location    "constant/triSurface";
    object      jaggedBoundary.eMesh;
}
// * * * * * * * * * * * * * * * * * * * * * * * * * * * * * * * * * * * * * //


// points:

134
(
(1.29999995232 0.40000000596 -1.5)
(1.29999995232 0.40000000596 1.5)
(1.29999995232 0 -1.5)
(1.29999995232 0 1.5)
(1.20000004768 -0.5 1.5)
(1.20000004768 -0.5 -1.5)
(1.10000002384 -1 1.5)
(1.10000002384 -1 -1.5)
(0.300000011921 -1.10000002384 1.5)
(0.300000011921 -1.10000002384 -1.5)
(-0.800000011921 0.899999976158 -1.5)
(-0.800000011921 0.899999976158 1.5)
(-0.300000011921 1 1.5)
(-0.300000011921 1 -1.5)
(0 1.10000002384 1.5)
(0 1.10000002384 -1.5)
(0.20000000298 1 1.5)
(0.20000000298 1 -1.5)
(0.699999988079 1 1.5)
(0.699999988079 1 -1.5)
(1 0.800000011921 1.5)
(1 0.800000011921 -1.5)
(-1.20000004768 0.10000000149 1.5)
(-1.20000004768 0.10000000149 -1.5)
(-1.10000002384 0 -1.5)
(-1.10000002384 0 1.5)
(-1.29999995232 0.300000011921 1.5)
(-1.29999995232 0.300000011921 -1.5)
(-1.29999995232 0.699999988079 1.5)
(-1.29999995232 0.699999988079 -1.5)
(-1.29999995232 0.800000011921 1.5)
(-1.29999995232 0.800000011921 -1.5)
(-0.40000000596 -0.899999976158 1.5)
(-0.40000000596 -0.899999976158 -1.5)
(-0.899999976158 -0.800000011921 1.5)
(-0.899999976158 -0.800000011921 -1.5)
(-1.20000004768 -0.699999988079 1.5)
(-1.20000004768 -0.699999988079 -1.5)
(-1.29999995232 -0.40000000596 1.5)
(-1.29999995232 -0.40000000596 -1.5)
(-1.10000002384 -0.20000000298 1.5)
(-1.10000002384 -0.20000000298 -1.5)
(0.0385189987719 -0.0289657991379 1.5)
(0.0385189987719 -0.0289657991379 -1.5)
(-0.0682383030653 0.0434882007539 -1.5)
(-0.0682383030653 0.0434882007539 1.5)
(-0.0187957007438 0.00145015004091 1.5)
(-0.0187957007438 0.00145015004091 -1.5)
(-0.107496999204 0.0951823964715 -1.5)
(-0.107496999204 0.0951823964715 1.5)
(-0.134736001492 0.154116004705 -1.5)
(-0.134736001492 0.154116004705 1.5)
(-0.148680999875 0.217531993985 -1.5)
(-0.148680999875 0.217531993985 1.5)
(-0.148680999875 0.282467007637 -1.5)
(-0.148680999875 0.282467007637 1.5)
(-0.134736001492 0.345883995295 -1.5)
(-0.134736001492 0.345883995295 1.5)
(-0.107496999204 0.404817998409 -1.5)
(-0.107496999204 0.404817998409 1.5)
(-0.0682383030653 0.456512004137 -1.5)
(-0.0682383030653 0.456512004137 1.5)
(0.442546993494 0.185445994139 -1.5)
(0.442546993494 0.185445994139 1.5)
(0.449559986591 0.25 1.5)
(0.449559986591 0.25 -1.5)
(0.421833008528 0.12391000241 -1.5)
(0.421833008528 0.12391000241 1.5)
(0.388388007879 0.0682699978352 -1.5)
(0.388388007879 0.0682699978352 1.5)
(0.343775987625 0.02112749964 -1.5)
(0.343775987625 0.02112749964 1.5)
(0.290082991123 -0.0153131000698 -1.5)
(0.290082991123 -0.0153131000698 1.5)
(0.229818999767 -0.0393478982151 -1.5)
(0.229818999767 -0.0393478982151 1.5)
(0.165802001953 -0.0498532988131 -1.5)
(0.165802001953 -0.0498532988131 1.5)
(0.101025998592 -0.0463377982378 -1.5)
(0.101025998592 -0.0463377982378 1.5)
(0.442546993494 0.314554005861 -1.5)
(0.442546993494 0.314554005861 1.5)
(0.421833008528 0.376089990139 1.5)
(0.421833008528 0.376089990139 -1.5)
(-0.300000011921 0 -1.39999997616)
(-0.300000011921 0 1.5)
(-0.699999988079 0 1.5)
(-0.699999988079 0 -1.39999997616)
(-0.300000011921 -0.40000000596 -1.39999997616)
(-0.300000011921 -0.40000000596 1.5)
(-0.699999988079 -0.40000000596 -1.39999997616)
(-0.699999988079 -0.40000000596 1.5)
(-0.018795799464 0.498549997807 -1.5)
(-0.018795799464 0.498549997807 1.5)
(0.0385188981891 0.528966009617 -1.5)
(0.0385188981891 0.528966009617 1.5)
(0.101025998592 0.546338021755 -1.5)
(0.101025998592 0.546338021755 1.5)
(0.165802001953 0.549853026867 -1.5)
(0.165802001953 0.549853026867 1.5)
(0.229818999767 0.539348006248 -1.5)
(0.229818999767 0.539348006248 1.5)
(0.290082991123 0.515313029289 -1.5)
(0.290082991123 0.515313029289 1.5)
(0.343775987625 0.47887301445 -1.5)
(0.343775987625 0.47887301445 1.5)
(0.388388007879 0.431730002165 -1.5)
(0.388388007879 0.431730002165 1.5)
(0.899999976158 0 1.5)
(0.899999976158 0 -1.5)
(0.40000000596 -0.10000000149 1.5)
(0.40000000596 -0.10000000149 -1.5)
(0.40000000596 -0.300000011921 1.5)
(0.40000000596 -0.300000011921 -1.5)
(0.40000000596 -0.899999976158 1.5)
(0.40000000596 -0.899999976158 -1.5)
(-0.600000023842 0.699999988079 1.5)
(-0.600000023842 0.699999988079 -1.5)
(-0.40000000596 0.699999988079 1.5)
(-0.40000000596 0.699999988079 -1.5)
(0.5 0.800000011921 1.5)
(0.5 0.800000011921 -1.5)
(-1.20000004768 0.5 1.5)
(-1.20000004768 0.5 -1.5)
(-1.10000002384 0.699999988079 1.5)
(-1.10000002384 0.699999988079 -1.5)
(-0.899999976158 0.800000011921 1.5)
(-0.899999976158 0.800000011921 -1.5)
(-0.20000000298 -0.699999988079 1.5)
(-0.20000000298 -0.699999988079 -1.5)
(-0.899999976158 -0.10000000149 1.5)
(-0.899999976158 -0.10000000149 -1.5)
(-0.899999976158 0.20000000298 1.5)
(-0.899999976158 0.20000000298 -1.5)
)


// edges:

67
(
(0 1)
(2 3)
(4 5)
(6 7)
(8 9)
(10 11)
(12 13)
(14 15)
(16 17)
(18 19)
(20 21)
(22 23)
(24 25)
(26 27)
(28 29)
(30 31)
(32 33)
(34 35)
(36 37)
(38 39)
(40 41)
(42 43)
(44 45)
(46 47)
(48 49)
(50 51)
(52 53)
(54 55)
(56 57)
(58 59)
(60 61)
(62 63)
(64 65)
(66 67)
(68 69)
(70 71)
(72 73)
(74 75)
(76 77)
(78 79)
(80 81)
(82 83)
(84 85)
(86 87)
(88 89)
(90 91)
(92 93)
(94 95)
(96 97)
(98 99)
(100 101)
(102 103)
(104 105)
(106 107)
(108 109)
(110 111)
(112 113)
(114 115)
(116 117)
(118 119)
(120 121)
(122 123)
(124 125)
(126 127)
(128 129)
(130 131)
(132 133)
)

// * * * * * * * * * * * * * * * * * * * * * * * * * * * * * * * * * * * * * //


// ************************************************************************* //
